SOL 123  $ made up solution
CEND
SET 101 = 61 THRU 69
SET 102 = 1 THRU 6
STRESS(PLOT,PUNCH) = 5
INCLUDE 'testB.inc'
DISP(PLOT,PUNCH) = 5
BEGIN BULK
GRID,1
SPOINT,11
SPOINT,3,6,7,12,13,44,61,102,+0
+0,1002,5,8,10,14,15,16
AERO, , ,1.0,1.0
GRID,4
GRID,40
GRID,41
GRID,50
GRID,60
GRID,120
GRID,121
GRID,200
GRID,1000
GRID,1003
GRID,1004
GRID,1005
GRID,1006
GRID,1008
GRID,1009
GRID,1010
GRID,1011
GRID,1012
GRID,2573
GRID,2574
$ ... 22 like lines cut
CBEAM,2100001,101,1,2,0.,1.,2.
CBEAM,2100002,101,1,2,0.,1.,2.
CBEAM,2100003,101,1,2,0.,1.,2.
PSHELL,16411,1,0.1
pbeaml,101,2, ,box, , , , ,+0
+0,6.0,1.0,0.1,0.1
CELAS1,1007,101,61,3
PELAS,80,1.0
CHBDYG,2, ,AREA6, , , , , ,+0
+0,1,13,11,7,12,6
CELAS2,3,1.-10,12,5
CELAS4,12,1.,1,2
celas3,20,80,1,2
CELAS4,30,1.,3
CMASS2,111,1.3447,102,3
CMASS1,120,120,200,5
PMASS,120,0.1
CMASS2,2005,5.-8,44,5
CELAS2,7001,1.0+6, , ,1002,1
JUNK,asdf,345634
CQUAD,16410,16411,16411,16412,16413,16414,16415,16416,+0
+0,16417,16418,16419
PBUSH,1,K,100000., , , , , ,+0
+0, ,RCV,1.5,1.,1.,1.
PCOMPG,2,-2.885, ,58.,STRN, , , ,+0
+0,1001,795,.17,45.001,YES, , , ,+1
+1,1002,796,5.,.001,YES, , , ,+2
+2,1003,795,.3,45.001,YES, , , ,+3
+3,1004,795,.3,45.001,YES
PCOMPG,3,-13., ,50.,TSAI,20.,0., ,+0
+0,1002,3,.5,0.,YES, , , ,+1
+1,1003,4,1.,-45.,YES, , , ,+2
+2,1004,2,.25,-90.,YES, , , ,+3
+3,1005,2,.25,-90.,YES, , , ,+4
+4,1006,4,1.,-45.,YES, , , ,+5
+5,1007,3,.5,0.,YES, , , ,+6
+6,1008,1,.125,45.,YES, , , ,+7
+7,1033,5,1.25,-45.,YES, , , ,+8
+8,1034,7,5.,-45.,YES, , , ,+9
+9,1035,8,10.,-45.,YES, , , ,+10
+10,1036,6,2.5,-45.,YES, , , ,+11
+11,1073,1,.125,45.,YES, , , ,+12
+12,1074,3,.5,0.,YES, , , ,+13
+13,1075,4,1.,-45.,YES, , , ,+14
+14,1076,2,.25,-90.,YES, , , ,+15
+15,1077,2,.25,-90.,YES, , , ,+16
+16,1078,4,1.,-45.,YES, , , ,+17
+17,1079,3,.5,0.,YES
PBCOMP,5,9,12., , , , , ,+0
+0, , , , , , ,5, ,+1
+1,0.0,1.633,.125, , , , , ,+2
+2,0.866,1.1547,.125, , , , , ,+3
+3,1.2247,0.0,.125, , , , , ,+4
+4,0.866,-1.1547,.125, , , , , ,+5
+5,0.0,-1.633,.125, , , , , ,+6
+6,-0.866,-1.1547,.125, , , , , ,+7
+7,-1.2247,0.0,.125, , , , , ,+8
+8,-0.866,1.1547,.125
PBARL,9,1, ,bar, , , , ,+0
+0,5.0,40.0
PBARL,10,1, ,rod, , , , ,+0
+0,.3
PBARL,11,1, ,cross, , , , ,+0
+0,.4,.1,.6,.1
pbeaml,12,1, ,bar, , , , ,+0
+0,5.0,1.5, ,no,1.0,4.,1.0
PCOMPG,55,-1.65, , , , , , ,+0
+0,1001,2,.275,0.,YES, , , ,+1
+1,1002,2,.275,0.,YES, , , ,+2
+2,1003,2,.275,0.,YES, , , ,+3
+3,1004,2,.275,0.,YES, , , ,+4
+4,1005,2,.275,45.,YES, , , ,+5
+5,1006,2,.275,45.,YES, , , ,+6
+6,1007,2,.275,45.,YES, , , ,+7
+7,1008,2,.275,45.,YES, , , ,+8
+8,1009,2,.275,0.,YES, , , ,+9
+9,1010,2,.275,0.,YES, , , ,+10
+10,1011,2,.275,0.,YES, , , ,+11
+11,1012,2,.275,0.,YES
PCOMPG,88,-1.78016, ,58.,STRN, , , ,+0
+0,1094,769,.260144,-60.282,YES, , , ,+1
+1,1093,769,.260144,-60.282,YES, , , ,+2
+2,1092,769,.260144,-60.282,YES, , , ,+3
+3,1088,765,.300001,-31.49,YES, , , ,+4
+4,1087,765,.300001,-31.49,YES, , , ,+5
+5,1047,769,.260395,-39.285,YES, , , ,+6
+6,1039,770,.395,14.556,YES, , , ,+7
+7,1010,769,.327089,-4.936,YES, , , ,+8
+8,1008,769,.260027,-41.294,YES, , , ,+9
+9,1006,770,.247159,-3.132,YES, , , ,+10
+10,1004,769,.260068,82.112,YES, , , ,+11
+11,1002,769,.260012,-48.392,YES, , , ,+12
+12,1001,765,.170127,-36.966,YES
PBEAML,100,200, ,BOX, , , , ,+0
+0,40.,50.,5.,5.
pbeaml,102,2, ,box, , , , ,+0
+0,6.0,1.0,0.1,0.1
pbush1d,204,1.e+5,1000., , , , , ,+0
+0,spring,table,205, , , , , ,+1
+1,damper,table,206
pvisc,310,1000.
PBEAM,201,1,1.,.0833,.0833, ,.05, ,+0
+0,-.5,-.5,-.5,+.5,+.5,+.5,+.5,-.5,+1
+1,YESA,.5, , , , , , ,+2
+2,YESA,1., , , , , , ,+3
+3, , , , , , ,1.2
PBEAM,202,1,1.,.0833,.0833, ,.05, ,+0
+0,-.5,-.5,-.5,+.5,+.5,+.5,+.5,-.5,+1
+1, , , , , , ,1.2
BARL,6666,10, ,BAR, , , , ,+0
+0,5.5,3.0
MAT1,1,1.+7, , ,.1, , , ,+0
+0,25000.,25000.
MAT1,765,3.+7
MAT1,770,3.+7
MAT1,795,3.+7
MAT1,796,3.+7
MAT1,769,3.+7
MAT1,7,3.+7
MAT1,8,3.+7
MAT1,10,3.+7
MAT1,200,3.+7
MAT1,2,3.+7
MAT1,3,8.5977+6,3.2554+6, ,0.097464, , , ,+0
+0,4,2.0+11,1.427+9,0.,1.33+11,0.0,3.577+9,0.2,+1
+1,1.-5,1.-5,1.-5,50.
MAT3,5,.8,.8,.8,.05,.05,0.05,.2,+0
+0, , , ,1.-5,1.-5,1.-5,50.
MAT8,6,7.8+6,2.6+6,.25,1.25+6,4.+3,20.+3,6.+3,+0
+0,3.5-6,11.4-6,0.,150.+3,150.+3,4.+3,20.+3,6.+3
MAT9,9,1.0, , , , , ,1.0,+0
+0, , , , ,1.0, , , ,+1
+1,1.0, , ,1.0, ,1.0,0.01,1.-3,+2
+2,1.-3,1.-3,1.-3,1.-3,1.-3,50.0
MAT10,25,1.,0.1
MAT10,26,0.1425,1.205-12
MATHP,27, , ,1500., , , , ,+0
+0, ,1,1, , , , , ,+1
+1, , , , , , , , ,+2
+2, , , , , , , , ,+3
+3, , , , , , , , ,+4
+4, , , , , , , , ,+5
+5,100,200, ,400
CREEP,1,1100., ,CRLAW, , , , ,+0
+0,111,6.985-6,2.444,7.032-4,0.1072,6.73-9,0.1479,3.0
CREEP,16, , ,TABLE,601,602,603
rbe3,6, ,3,123456,1.0,123456,41,4,+0
+0,alpha,2.0e-4
RBE3,51, ,120,1,.4408175,123,10006,.9099256,+0
+0,123,10106,1.309702,123,10206,1.590075,123,10306,+1
+1,.7494812,1235,10806
RBE3,52, ,121,2,.4408175,123,10706,.9099256,+0
+0,123,10606,1.309702,123,10506,1.590075,123,10406,+1
+1,.7494812,1234,10806
RBE3,123, ,50,5,1.,123,4,6,+0
+0,40,60, , , , , , ,+1
+1,UM,4,3, , , , , ,+2
+2,ALPHA,1.
RBE3,307, ,3,123456,1.,1234,31201
RBE1,1001,1000,123456, , , , , ,+0
+0,UM,1002,123,1003,123,1004,123, ,+1
+1, ,1005,123,1006,123,1008,123, ,+2
+2, ,1009,123,1010,123,1011,123, ,+3
+3, ,1012,123
RBE3,12225, ,12043,123456,1.,123,2573,2574,+0
+0,2575,2576
PLOAD4,1,1001,-400510
DLOAD,3,1.,1.,10,0.,10
QHBDY,10,AREA4,70., ,30000,31000,31100,30100
PLOAD2,13,1.,2100001,THRU,2100003
PLOAD,20,-1.0,1,2,3
QBDY3,33,20.0, ,1,thru,8
QBDY3,34,20., ,1,THRU,7,BY,2,+0
+0,10,THRU,40,BY,5,42,45,THRU,+1
+1,48
QBDY3,35,20., ,1,2,3,4,5,+0
+0,6,7,8
TLOAD2,310,320, ,1,0.,.10472,4.77465,-90.,+0
+0,0.0,0.0
QBDY3,500,50000.0, ,10,THRU,60,BY,10
PLOAD4,510,101,5., , , ,THRU,112
EIGB,5,INV,0.0,2.,20,2,2
NLPARM,1,100, ,AUTO,1,40,P,ALL,+0
+0, ,0.010, , , , , , ,+1
+1,9
NLPARM,2,10, ,AUTO,5,25,PW,NO,+0
+0,.01,.01,.01
CAERO1,101,1, ,3,3, , ,1,+0
+0,60.0,10.0,0.0,30.0,60.0,30.0,0.0,30.0
CAERO2,1500,1520, , , ,1505,1506,1,+0
+0,-60.0,0.0,0.0,150.0
DCONSTR,1,16,-999999.,1000000.
DDVAL,10,0.1,0.5, , , , , ,+0
+0,1.0,THRU,100.,BY,1.0
DRESP2,1,LBUCK,5,3, , , , ,+0
+0,DESVAR,101,3,4,5,1,205,209,+1
+1, ,201, , , , , , ,+2
+2,DNODE,14,1,4,1,22,3, ,+3
+3, ,2,1,43,1, , , ,+4
+4,DRESP1,14,1,4,22,6,33,2,+5
+5,DRESP2,50,51, , , , , ,+6
+6,DTABLE,PI,YM,L, , , , ,+7
+7,DVCREL1,201,202, , , , , ,+8
+8,DVCREL2,501, , , , , , ,+9
+9,DVMREL1,301, , , , , , ,+10
+10,DVMREL2,601,602,603, , , , ,+11
+11,DVPREL1,101,102, , , , , ,+12
+12,DVPREL2,401,402
DESVAR,3,PBAR_val,0.1
DESVAR,30,Evalue,0.1
DTABLE,X3INIT,1.0,I1INIT,1.0
DRESP2,16,SUMFORC,1, , , , , ,+0
+0,DRESP1,14,15
DVMREL1,1,MAT1,1,E, , , , ,+0
+0,30,1.44+9
DVPREL2,11,PBAR,3,6, , ,2, ,+0
+0,DESVAR,5,6
DVPREL2,12,PBA,3,5,1., ,1, ,+0
+0,DE,3, , , , , , ,+1
+1,DT,X3INIT,I1INIT
DOPTPRM,P1,1,P2,15,IPRINT,7
DOPTPRM,APRCOD,2,IPRINT,0,DESMAX,8,DELP,0.50,+0
+0,DPMIN,0.50,P1,3,P2,4
DOPTPRM,IPRINT,3,DESMAX,15,DELP,0.5,P1,1,+0
+0,P2,15
TABLED1,1,LINEAR,LINEAR, , , , , ,+0
+0,1.,1.,2.,2.,3.,3.,ENDT
TABLED1,310,LINEAR,LINEAR, , , , , ,+0
+0,0.,1.,200000.,1.,ENDT
ASET1,3,1,THRU,8
ASET1,3,10,THRU,16
SESET,0,1,THRU,10
ENDDATA